13
Lattice="4.260799885 0.0 0.0 -2.130399942 3.689960941 0.0 0.0 0.0 24.0" Properties=species:S:1:pos:R:3:forces:R:3 stress="-0.014692537448365694 3.214377199829878e-06 -0.0 3.214377199829878e-06 -0.014694122791683669 -0.0 -0.0 -0.0 0.005142653995216755" free_energy=-113.42271606 energy=-113.42093383 pbc="T T T"
C        0.00000000       0.00000000      13.90000000      -0.00926500      -0.01572000      -0.01464000
C       -0.00002000       2.45999000      13.90000000       0.01945600      -0.00011400      -0.01464300
C        2.13042000       1.22997000      13.90000000      -0.01112700       0.01694800      -0.01465600
C        2.84053000       2.45999000      13.90000000      -0.01856400      -0.00034900      -0.01462400
C        0.71010000       1.23001000      13.90000000       0.01110400       0.01523000      -0.01466300
C        2.84055000       0.00000000      13.90000000       0.00840000      -0.01596300      -0.01463200
C        0.00000000       0.00000000      10.10000000      -0.00926500      -0.01572000       0.01464000
C       -0.00002000       2.45999000      10.10000000       0.01945600      -0.00011400       0.01464300
C        2.13042000       1.22997000      10.10000000      -0.01112700       0.01694800       0.01465600
C        2.84053000       2.45999000      10.10000000      -0.01856400      -0.00034900       0.01462400
C        0.71010000       1.23001000      10.10000000       0.01110400       0.01523000       0.01466300
C        2.84055000       0.00000000      10.10000000       0.00840000      -0.01596300       0.01463200
Li       1.42030000       2.45999000      12.00000000      -0.00000900      -0.00006300      -0.00000000
13
Lattice="4.260799885 0.0 0.0 -2.130399942 3.689960941 0.0 0.0 0.0 24.0" Properties=species:S:1:pos:R:3:forces:R:3 stress="-0.01469119552390363 3.208135690703995e-06 -0.0 3.208135690703995e-06 -0.01469276838420335 -0.0 -0.0 -0.0 0.005116033958794864" free_energy=-113.42284957 energy=-113.42105504 pbc="T T T"
C        0.00000000       0.00000000      13.89929000      -0.00922500      -0.01565300      -0.01602700
C       -0.00002000       2.45999000      13.89929000       0.01937900      -0.00011600      -0.01603900
C        2.13042000       1.22997000      13.89929000      -0.01108600       0.01687800      -0.01604700
C        2.84053000       2.45999000      13.89929000      -0.01848800      -0.00034600      -0.01603300
C        0.71010000       1.23001000      13.89929000       0.01106200       0.01516100      -0.01604500
C        2.84055000       0.00000000      13.89929000       0.00836200      -0.01589400      -0.01603900
C        0.00000000       0.00000000      10.10071000      -0.00922500      -0.01565300       0.01602700
C       -0.00002000       2.45999000      10.10071000       0.01937900      -0.00011600       0.01603900
C        2.13042000       1.22997000      10.10071000      -0.01108600       0.01687800       0.01604700
C        2.84053000       2.45999000      10.10071000      -0.01848800      -0.00034600       0.01603300
C        0.71010000       1.23001000      10.10071000       0.01106200       0.01516100       0.01604500
C        2.84055000       0.00000000      10.10071000       0.00836200      -0.01589400       0.01603900
Li       1.42029000       2.45998000      12.00000000      -0.00000900      -0.00006000      -0.00000000
13
Lattice="4.260799885 0.0 0.0 -2.130399942 3.689960941 0.0 0.0 0.0 24.0" Properties=species:S:1:pos:R:3:forces:R:3 stress="-0.014716504843409084 3.31424134584401e-06 -0.0 3.31424134584401e-06 -0.0147181962923822 -0.0 -0.0 -0.0 0.005045860671692558" free_energy=-113.42143429 energy=-113.41978285 pbc="T T T"
C        0.00000000       0.00000000      13.90741000      -0.00971200      -0.01646800      -0.01328000
C       -0.00002000       2.45999000      13.90741000       0.02034500      -0.00010500      -0.01335300
C        2.13042000       1.22997000      13.90742000      -0.01159200       0.01774300      -0.01339900
C        2.84053000       2.45999000      13.90741000      -0.01944800      -0.00037500      -0.01334200
C        0.71010000       1.23001000      13.90741000       0.01157000       0.01599200      -0.01341200
C        2.84055000       0.00000000      13.90741000       0.00884400      -0.01674900      -0.01336800
C        0.00000000       0.00000000      10.09259000      -0.00971200      -0.01646800       0.01328000
C       -0.00002000       2.45999000      10.09259000       0.02034500      -0.00010500       0.01335300
C        2.13042000       1.22997000      10.09258000      -0.01159200       0.01774300       0.01339900
C        2.84053000       2.45999000      10.09259000      -0.01944800      -0.00037500       0.01334200
C        0.71010000       1.23001000      10.09259000       0.01157000       0.01599200       0.01341200
C        2.84055000       0.00000000      10.09259000       0.00884400      -0.01674900       0.01336800
Li       1.42030000       2.46001000      12.00000000      -0.00001200      -0.00008000       0.00000000
13
Lattice="4.260799885 0.0 0.0 -2.130399942 3.689960941 0.0 0.0 0.0 24.0" Properties=species:S:1:pos:R:3:forces:R:3 stress="-0.015530166697586605 3.807320566788788e-06 -0.0 3.807320566788788e-06 -0.015532401157853669 -0.0 -0.0 -0.0 0.0065140196558284465" free_energy=-113.40179177 energy=-113.40072973 pbc="T T T"
C        0.00000000       0.00000000      13.94786000      -0.01221600      -0.02069500      -0.05478200
C       -0.00002000       2.45999000      13.94788000       0.02531100      -0.00007000      -0.05497000
C        2.13042000       1.22997000      13.94789000      -0.01417600       0.02215600      -0.05509900
C        2.84053000       2.45999000      13.94786000      -0.02439700      -0.00048100      -0.05479400
C        0.71010000       1.23001000      13.94788000       0.01415200       0.02027800      -0.05499800
C        2.84055000       0.00000000      13.94787000       0.01133500      -0.02112200      -0.05488300
C        0.00000000       0.00000000      10.05214000      -0.01221600      -0.02069500       0.05478200
C       -0.00002000       2.45999000      10.05212000       0.02531100      -0.00007000       0.05497000
C        2.13042000       1.22997000      10.05211000      -0.01417600       0.02215600       0.05509900
C        2.84053000       2.45999000      10.05214000      -0.02439700      -0.00048100       0.05479400
C        0.71010000       1.23001000      10.05212000       0.01415200       0.02027800       0.05499800
C        2.84055000       0.00000000      10.05213000       0.01133500      -0.02112200       0.05488300
Li       1.42032000       2.46016000      12.00000000      -0.00001900      -0.00013300       0.00000000
13
Lattice="4.260799885 0.0 0.0 -2.130399942 3.689960941 0.0 0.0 0.0 24.0" Properties=species:S:1:pos:R:3:forces:R:3 stress="-0.014682494860182147 3.1644451268228113e-06 -0.0 3.1644451268228113e-06 -0.01468398033935411 -0.0 -0.0 -0.0 0.00472251304991705" free_energy=-113.42370716 energy=-113.42182524 pbc="T T T"
C        0.00000000       0.00000000      13.89441000      -0.00891000      -0.01512200      -0.01339400
C       -0.00002000       2.45999000      13.89441000       0.01875500      -0.00011900      -0.01340300
C        2.13042000       1.22997000      13.89441000      -0.01076000       0.01632200      -0.01341000
C        2.84053000       2.45999000      13.89441000      -0.01786500      -0.00033300      -0.01337500
C        0.71010000       1.23001000      13.89441000       0.01073700       0.01462100      -0.01339200
C        2.84055000       0.00000000      13.89441000       0.00804600      -0.01534400      -0.01338200
C        0.00000000       0.00000000      10.10559000      -0.00891000      -0.01512200       0.01339400
C       -0.00002000       2.45999000      10.10559000       0.01875500      -0.00011900       0.01340300
C        2.13042000       1.22997000      10.10559000      -0.01076000       0.01632200       0.01341000
C        2.84053000       2.45999000      10.10559000      -0.01786500      -0.00033300       0.01337500
C        0.71010000       1.23001000      10.10559000       0.01073700       0.01462100       0.01339200
C        2.84055000       0.00000000      10.10559000       0.00804600      -0.01534400       0.01338200
Li       1.42029000       2.45996000      12.00000000      -0.00000800      -0.00005000      -0.00000000
13
Lattice="4.260799885 0.0 0.0 -2.130399942 3.689960941 0.0 0.0 0.0 24.0" Properties=species:S:1:pos:R:3:forces:R:3 stress="-0.013743322498992242 2.9335092891651313e-06 -0.0 2.9335092891651313e-06 -0.01374458328383567 -0.0 -0.0 -0.0 0.004880935034550219" free_energy=-113.42232428 energy=-113.42016458 pbc="T T T"
C        0.00000000       0.00000000      13.87717000      -0.00782700      -0.01329800       0.00478100
C       -0.00002000       2.45999000      13.87716000       0.01661100      -0.00013900       0.00480500
C        2.13042000       1.22997000      13.87716000      -0.00964000       0.01440700       0.00482700
C        2.84053000       2.45999000      13.87717000      -0.01572300      -0.00028500       0.00478600
C        0.71010000       1.23001000      13.87716000       0.00961900       0.01276200       0.00482800
C        2.84055000       0.00000000      13.87716000       0.00696100      -0.01344400       0.00479300
C        0.00000000       0.00000000      10.12283000      -0.00782700      -0.01329800      -0.00478100
C       -0.00002000       2.45999000      10.12284000       0.01661100      -0.00013900      -0.00480500
C        2.13042000       1.22997000      10.12284000      -0.00964000       0.01440700      -0.00482700
C        2.84053000       2.45999000      10.12283000      -0.01572300      -0.00028500      -0.00478600
C        0.71010000       1.23001000      10.12284000       0.00961900       0.01276200      -0.00482800
C        2.84055000       0.00000000      10.12284000       0.00696100      -0.01344400      -0.00479300
Li       1.42028000       2.45990000      12.00000000      -0.00000300      -0.00000800       0.00000000
