13
Lattice="4.260799885 0.0 0.0 -2.130399942 3.689960941 0.0 0.0 0.0 24.0" Properties=species:S:1:pos:R:3:forces:R:3 stress="-0.01522226681089766 2.746264015388634e-06 -0.0 2.746264015388634e-06 -0.015223327867449059 -0.0 -0.0 -0.0 0.0029552796729962125" free_energy=-113.41697916 energy=-113.41455235 pbc="T T T"
C        0.00000000       0.00000000      13.85000000      -0.00565100      -0.00961400       0.02773000
C       -0.00002000       2.45999000      13.85000000       0.01237400      -0.00020000       0.02770700
C        2.13042000       1.22997000      13.85000000      -0.00751300       0.01069200       0.02769500
C        2.84053000       2.45999000      13.85000000      -0.01147200      -0.00027400       0.02773300
C        0.71010000       1.23001000      13.85000000       0.00748800       0.00912700       0.02770400
C        2.84055000       0.00000000      13.85000000       0.00478200      -0.00969700       0.02772100
C        0.00000000       0.00000000      10.15000000      -0.00565100      -0.00961400      -0.02773000
C       -0.00002000       2.45999000      10.15000000       0.01237400      -0.00020000      -0.02770700
C        2.13042000       1.22997000      10.15000000      -0.00751300       0.01069200      -0.02769500
C        2.84053000       2.45999000      10.15000000      -0.01147200      -0.00027400      -0.02773300
C        0.71010000       1.23001000      10.15000000       0.00748800       0.00912700      -0.02770400
C        2.84055000       0.00000000      10.15000000       0.00478200      -0.00969700      -0.02772100
Li       1.42030000       2.45999000      12.00000000      -0.00001600      -0.00006700      -0.00000000
13
Lattice="4.260799885 0.0 0.0 -2.130399942 3.689960941 0.0 0.0 0.0 24.0" Properties=species:S:1:pos:R:3:forces:R:3 stress="-0.01522383967119738 2.7587470336404003e-06 -0.0 2.7587470336404003e-06 -0.015224906969257906 -0.0 -0.0 -0.0 0.00300445028188992" free_energy=-113.41743823 energy=-113.41501746 pbc="T T T"
C        0.00000000       0.00000000      13.85134000      -0.00578200      -0.00983900       0.02912700
C       -0.00002000       2.45999000      13.85134000       0.01263100      -0.00019800       0.02911500
C        2.13042000       1.22997000      13.85134000      -0.00764200       0.01091700       0.02910900
C        2.84053000       2.45999000      13.85134000      -0.01173100      -0.00027400       0.02912100
C        0.71010000       1.23001000      13.85134000       0.00761700       0.00934900       0.02910700
C        2.84055000       0.00000000      13.85134000       0.00491400      -0.00992300       0.02911400
C        0.00000000       0.00000000      10.14866000      -0.00578200      -0.00983900      -0.02912700
C       -0.00002000       2.45999000      10.14866000       0.01263100      -0.00019800      -0.02911500
C        2.13042000       1.22997000      10.14866000      -0.00764200       0.01091700      -0.02910900
C        2.84053000       2.45999000      10.14866000      -0.01173100      -0.00027400      -0.02912100
C        0.71010000       1.23001000      10.14866000       0.00761700       0.00934900      -0.02910700
C        2.84055000       0.00000000      10.14866000       0.00491400      -0.00992300      -0.02911400
Li       1.42029000       2.45998000      12.00000000      -0.00001500      -0.00006300      -0.00000000
13
Lattice="4.260799885 0.0 0.0 -2.130399942 3.689960941 0.0 0.0 0.0 24.0" Properties=species:S:1:pos:R:3:forces:R:3 stress="-0.014881642691861704 2.746264015388634e-06 -0.0 2.746264015388634e-06 -0.014882703748413105 -0.0 -0.0 -0.0 0.002837845678792719" free_energy=-113.40910011 energy=-113.40670539 pbc="T T T"
C        0.00000000       0.00000000      13.82352000      -0.00316400      -0.00532200       0.02155400
C       -0.00002000       2.45999000      13.82353000       0.00745300      -0.00022700       0.02141100
C        2.13042000       1.22997000      13.82354000      -0.00506600       0.00642500       0.02134600
C        2.84053000       2.45999000      13.82353000      -0.00653000      -0.00028900       0.02143600
C        0.71010000       1.23001000      13.82354000       0.00503800       0.00488300       0.02126900
C        2.84055000       0.00000000      13.82354000       0.00228900      -0.00540400       0.02137400
C        0.00000000       0.00000000      10.17648000      -0.00316400      -0.00532200      -0.02155400
C       -0.00002000       2.45999000      10.17647000       0.00745300      -0.00022700      -0.02141100
C        2.13042000       1.22997000      10.17646000      -0.00506600       0.00642500      -0.02134600
C        2.84053000       2.45999000      10.17647000      -0.00653000      -0.00028900      -0.02143600
C        0.71010000       1.23001000      10.17646000       0.00503800       0.00488300      -0.02126900
C        2.84055000       0.00000000      10.17646000       0.00228900      -0.00540400      -0.02137400
Li       1.42031000       2.46004000      12.00000000      -0.00003900      -0.00013000      -0.00000000
13
Lattice="4.260799885 0.0 0.0 -2.130399942 3.689960941 0.0 0.0 0.0 24.0" Properties=species:S:1:pos:R:3:forces:R:3 stress="-0.015130984739931614 3.470279073991091e-06 -0.0 3.470279073991091e-06 -0.015132844709651129 -0.0 -0.0 -0.0 -0.0013512055861350889" free_energy=-113.34914126 energy=-113.34780323 pbc="T T T"
C        0.00000000       0.00000000      13.74644000       0.00815200       0.01450200       0.09346200
C       -0.00002000       2.45999000      13.74646000      -0.01525000      -0.00015500       0.09314500
C        2.13042000       1.22997000      13.74647000       0.00612800      -0.01302000       0.09298600
C        2.84053000       2.45999000      13.74644000       0.01622900      -0.00047000       0.09346000
C        0.71010000       1.23001000      13.74646000      -0.00617600      -0.01479300       0.09308200
C        2.84055000       0.00000000      13.74645000      -0.00902500       0.01412500       0.09333700
C        0.00000000       0.00000000      10.25356000       0.00815200       0.01450200      -0.09346200
C       -0.00002000       2.45999000      10.25354000      -0.01525000      -0.00015500      -0.09314500
C        2.13042000       1.22997000      10.25353000       0.00612800      -0.01302000      -0.09298600
C        2.84053000       2.45999000      10.25356000       0.01622900      -0.00047000      -0.09346000
C        0.71010000       1.23001000      10.25354000      -0.00617600      -0.01479300      -0.09308200
C        2.84055000       0.00000000      10.25355000      -0.00902500       0.01412500      -0.09333700
Li       1.42034000       2.46020000      12.00000000      -0.00011600      -0.00037900      -0.00000000
13
Lattice="4.260799885 0.0 0.0 -2.130399942 3.689960941 0.0 0.0 0.0 24.0" Properties=species:S:1:pos:R:3:forces:R:3 stress="-0.015212242947241487 2.74002250626275e-06 -0.0 2.74002250626275e-06 -0.01521327279624726 -0.0 -0.0 -0.0 0.0027699817500669898" free_energy=-113.41586882 energy=-113.41342937 pbc="T T T"
C        0.00000000       0.00000000      13.84649000      -0.00547600      -0.00931800       0.02370500
C       -0.00002000       2.45999000      13.84649000       0.01203800      -0.00020600       0.02364500
C        2.13042000       1.22997000      13.84649000      -0.00734500       0.01039700       0.02361500
C        2.84053000       2.45999000      13.84649000      -0.01113200      -0.00027600       0.02373200
C        0.71010000       1.23001000      13.84649000       0.00731900       0.00884000       0.02365600
C        2.84055000       0.00000000      13.84649000       0.00460700      -0.00939800       0.02370700
C        0.00000000       0.00000000      10.15351000      -0.00547600      -0.00931800      -0.02370500
C       -0.00002000       2.45999000      10.15351000       0.01203800      -0.00020600      -0.02364500
C        2.13042000       1.22997000      10.15351000      -0.00734500       0.01039700      -0.02361500
C        2.84053000       2.45999000      10.15351000      -0.01113200      -0.00027600      -0.02373200
C        0.71010000       1.23001000      10.15351000       0.00731900       0.00884000      -0.02365600
C        2.84055000       0.00000000      10.15351000       0.00460700      -0.00939800      -0.02370700
Li       1.42030000       2.46000000      12.00000000      -0.00002100      -0.00007900       0.00000000
13
Lattice="4.260799885 0.0 0.0 -2.130399942 3.689960941 0.0 0.0 0.0 24.0" Properties=species:S:1:pos:R:3:forces:R:3 stress="-0.013743759404631052 2.952233816542781e-06 -0.0 2.952233816542781e-06 -0.013745076363056614 -0.0 -0.0 -0.0 0.00485327890761343" free_energy=-113.42256952 energy=-113.4204611 pbc="T T T"
C        0.00000000       0.00000000      13.88054000      -0.00805700      -0.01369100       0.00896900
C       -0.00002000       2.45999000      13.88054000       0.01707900      -0.00014200       0.00896000
C        2.13042000       1.22997000      13.88054000      -0.00989000       0.01482700       0.00895700
C        2.84053000       2.45999000      13.88054000      -0.01618900      -0.00029900       0.00895300
C        0.71010000       1.23001000      13.88054000       0.00986900       0.01316900       0.00894500
C        2.84055000       0.00000000      13.88054000       0.00719000      -0.01385000       0.00896300
C        0.00000000       0.00000000      10.11946000      -0.00805700      -0.01369100      -0.00896900
C       -0.00002000       2.45999000      10.11946000       0.01707900      -0.00014200      -0.00896000
C        2.13042000       1.22997000      10.11946000      -0.00989000       0.01482700      -0.00895700
C        2.84053000       2.45999000      10.11946000      -0.01618900      -0.00029900      -0.00895300
C        0.71010000       1.23001000      10.11946000       0.00986900       0.01316900      -0.00894500
C        2.84055000       0.00000000      10.11946000       0.00719000      -0.01385000      -0.00896300
Li       1.42028000       2.45993000      12.00000000      -0.00000400      -0.00002900       0.00000000
