13
Lattice="4.260799885 0.0 0.0 -2.130399942 3.689960941 0.0 0.0 0.0 24.0" Properties=species:S:1:pos:R:3:forces:R:3 stress="-0.015546588108096802 3.8260450941664375e-06 -0.0 3.8260450941664375e-06 -0.015548828809872996 -0.0 -0.0 -0.0 0.006670107316048536" free_energy=-113.40043298 energy=-113.39939065 pbc="T T T"
C        0.00000000       0.00000000      13.95000000      -0.01235300      -0.02090500      -0.05262000
C       -0.00002000       2.45999000      13.95000000       0.02549500      -0.00002700      -0.05263100
C        2.13042000       1.22997000      13.95000000      -0.01422800       0.02230600      -0.05264800
C        2.84053000       2.45999000      13.95000000      -0.02460300      -0.00043300      -0.05261800
C        0.71010000       1.23001000      13.95000000       0.01420700       0.02040700      -0.05264100
C        2.84055000       0.00000000      13.95000000       0.01148400      -0.02132000      -0.05262500
C        0.00000000       0.00000000      10.05000000      -0.01235300      -0.02090500       0.05262000
C       -0.00002000       2.45999000      10.05000000       0.02549500      -0.00002700       0.05263100
C        2.13042000       1.22997000      10.05000000      -0.01422800       0.02230600       0.05264800
C        2.84053000       2.45999000      10.05000000      -0.02460300      -0.00043300       0.05261800
C        0.71010000       1.23001000      10.05000000       0.01420700       0.02040700       0.05264100
C        2.84055000       0.00000000      10.05000000       0.01148400      -0.02132000       0.05262500
Li       1.42030000       2.45999000      12.00000000      -0.00000500      -0.00005700       0.00000000
13
Lattice="4.260799885 0.0 0.0 -2.130399942 3.689960941 0.0 0.0 0.0 24.0" Properties=species:S:1:pos:R:3:forces:R:3 stress="-0.015533874154007381 3.807320566788788e-06 -0.0 3.807320566788788e-06 -0.015536089889747067 -0.0 -0.0 -0.0 0.006587694429550373" free_energy=-113.40208555 energy=-113.40101874 pbc="T T T"
C        0.00000000       0.00000000      13.94746000      -0.01221700      -0.02067500      -0.05540100
C       -0.00002000       2.45999000      13.94746000       0.02522600      -0.00002900      -0.05540700
C        2.13042000       1.22997000      13.94746000      -0.01409000       0.02206800      -0.05541600
C        2.84053000       2.45999000      13.94746000      -0.02433400      -0.00042800      -0.05540300
C        0.71010000       1.23001000      13.94746000       0.01406800       0.02017600      -0.05541700
C        2.84055000       0.00000000      13.94746000       0.01135000      -0.02108500      -0.05540800
C        0.00000000       0.00000000      10.05254000      -0.01221700      -0.02067500       0.05540100
C       -0.00002000       2.45999000      10.05254000       0.02522600      -0.00002900       0.05540700
C        2.13042000       1.22997000      10.05254000      -0.01409000       0.02206800       0.05541600
C        2.84053000       2.45999000      10.05254000      -0.02433400      -0.00042800       0.05540300
C        0.71010000       1.23001000      10.05254000       0.01406800       0.02017600       0.05541700
C        2.84055000       0.00000000      10.05254000       0.01135000      -0.02108500       0.05540800
Li       1.42029000       2.45998000      12.00000000      -0.00000500      -0.00005600      -0.00000000
13
Lattice="4.260799885 0.0 0.0 -2.130399942 3.689960941 0.0 0.0 0.0 24.0" Properties=species:S:1:pos:R:3:forces:R:3 stress="-0.015129655298487801 4.013290367942935e-06 -0.0 4.013290367942935e-06 -0.015132101970065148 -0.0 -0.0 -0.0 0.009046855266657503" free_energy=-113.37339117 energy=-113.3725459 pbc="T T T"
C        0.00000000       0.00000000      13.99810000      -0.01499100      -0.02544000      -0.07405700
C       -0.00002000       2.45999000      13.99810000       0.03076100      -0.00001500      -0.07410700
C        2.13042000       1.22997000      13.99811000      -0.01689200       0.02690400      -0.07419000
C        2.84053000       2.45999000      13.99810000      -0.02986600      -0.00046900      -0.07410800
C        0.71010000       1.23001000      13.99811000       0.01687200       0.02496000      -0.07422400
C        2.84055000       0.00000000      13.99810000       0.01411700      -0.02590500      -0.07413500
C        0.00000000       0.00000000      10.00190000      -0.01499100      -0.02544000       0.07405700
C       -0.00002000       2.45999000      10.00190000       0.03076100      -0.00001500       0.07410700
C        2.13042000       1.22997000      10.00189000      -0.01689200       0.02690400       0.07419000
C        2.84053000       2.45999000      10.00190000      -0.02986600      -0.00046900       0.07410800
C        0.71010000       1.23001000      10.00189000       0.01687200       0.02496000       0.07422400
C        2.84055000       0.00000000      10.00190000       0.01411700      -0.02590500       0.07413500
Li       1.42030000       2.46003000      12.00000000      -0.00000200      -0.00006700      -0.00000000
13
Lattice="4.260799885 0.0 0.0 -2.130399942 3.689960941 0.0 0.0 0.0 24.0" Properties=species:S:1:pos:R:3:forces:R:3 stress="-0.014512388770465323 2.877335707032182e-06 -0.0 2.877335707032182e-06 -0.014513680762854381 -0.0 -0.0 -0.0 0.0017785429914569382" free_energy=-113.40066339 energy=-113.39848428 pbc="T T T"
C        0.00000000       0.00000000      13.79765000      -0.00014900      -0.00003100       0.04789300
C       -0.00002000       2.45999000      13.79764000       0.00124300      -0.00014800       0.04800700
C        2.13042000       1.22997000      13.79763000      -0.00189400       0.00103000       0.04817300
C        2.84053000       2.45999000      13.79765000      -0.00035400      -0.00023000       0.04791100
C        0.71010000       1.23001000      13.79763000       0.00187000      -0.00056000       0.04813900
C        2.84055000       0.00000000      13.79764000      -0.00071500      -0.00011200       0.04792500
C        0.00000000       0.00000000      10.20235000      -0.00014900      -0.00003100      -0.04789300
C       -0.00002000       2.45999000      10.20236000       0.00124300      -0.00014800      -0.04800700
C        2.13042000       1.22997000      10.20237000      -0.00189400       0.00103000      -0.04817300
C        2.84053000       2.45999000      10.20235000      -0.00035400      -0.00023000      -0.04791100
C        0.71010000       1.23001000      10.20237000       0.00187000      -0.00056000      -0.04813900
C        2.84055000       0.00000000      10.20236000      -0.00071500      -0.00011200      -0.04792500
Li       1.42028000       2.45983000      12.00000000      -0.00000200       0.00010200       0.00000000
13
Lattice="4.260799885 0.0 0.0 -2.130399942 3.689960941 0.0 0.0 0.0 24.0" Properties=species:S:1:pos:R:3:forces:R:3 stress="-0.01373744299739566 2.921026270913365e-06 -0.0 2.921026270913365e-06 -0.013738697540729962 -0.0 -0.0 -0.0 0.004759181916031614" free_energy=-113.4222746 energy=-113.420104 pbc="T T T"
C        0.00000000       0.00000000      13.87643000      -0.00784800      -0.01333800       0.00405500
C       -0.00002000       2.45999000      13.87643000       0.01666400      -0.00014400       0.00406600
C        2.13042000       1.22997000      13.87643000      -0.00966700       0.01445000       0.00409200
C        2.84053000       2.45999000      13.87643000      -0.01577200      -0.00028600       0.00406700
C        0.71010000       1.23001000      13.87643000       0.00964600       0.01281100       0.00410000
C        2.84055000       0.00000000      13.87643000       0.00698100      -0.01348500       0.00407800
C        0.00000000       0.00000000      10.12357000      -0.00784800      -0.01333800      -0.00405500
C       -0.00002000       2.45999000      10.12357000       0.01666400      -0.00014400      -0.00406600
C        2.13042000       1.22997000      10.12357000      -0.00966700       0.01445000      -0.00409200
C        2.84053000       2.45999000      10.12357000      -0.01577200      -0.00028600      -0.00406700
C        0.71010000       1.23001000      10.12357000       0.00964600       0.01281100      -0.00410000
C        2.84055000       0.00000000      10.12357000       0.00698100      -0.01348500      -0.00407800
Li       1.42029000       2.45991000      12.00000000      -0.00000700      -0.00001600      -0.00000000
